1
1
.ac dec 500 1 500
2
9
/Vout
V
5
/Vout
V
