1
1
.ac dec 100000 100m 15k
2
9
/v_out
V
5
/v_out
V
