1
1
.ac dec 10000 10m 10k
2
9
/Vout
V
5
/Vout
V
