2
1
.ac dec 50000 1 50k
0
9
.tran 1u 1
0
